<?xml version="1.0" encoding="UTF-8"?>

<!-- generated on 2025-09-26 22:09:54 by Eclipse SUMO netedit Version 1.20.0
<configuration xmlns:xsi="http://www.w3.org/2001/XMLSchema-instance" xsi:noNamespaceSchemaLocation="http://sumo.dlr.de/xsd/neteditConfiguration.xsd">

    <input>
        <sumocfg-file value="F:\sumo_use\tsc610_4_4\nets_2\22grid_fuben_e1_1012.sumocfg"/>
        <additional-files value="F:\sumo_use\tsc610_4_4\nets_2\22grid_e1_1012.add.xml"/>
        <route-files value="F:\sumo_use\tsc610_4_4\nets_2\routes1012.rou.xml"/>
        <sumo-net-file value="F:\sumo_use\tsc610_4_4\nets_2\22Grid2lanes_fuben_1012.net.xml"/>
    </input>

    <output>
        <output-file value="F:\sumo_use\tsc610_4_4\nets_2\22Grid2lanes_fuben_1012.net.xml"/>
    </output>

    <processing>
        <geometry.min-radius.fix.railways value="false"/>
        <geometry.max-grade.fix value="false"/>
        <offset.disable-normalization value="true"/>
        <lefthand value="0"/>
    </processing>

    <junctions>
        <no-turnarounds value="true"/>
        <junctions.corner-detail value="0"/>
        <junctions.limit-turn-speed value="-1.00"/>
        <rectangular-lane-cut value="0"/>
    </junctions>

    <pedestrian>
        <walkingareas value="0"/>
    </pedestrian>

</configuration>
-->

<net version="1.20" xmlns:xsi="http://www.w3.org/2001/XMLSchema-instance" xsi:noNamespaceSchemaLocation="http://sumo.dlr.de/xsd/net_file.xsd">

    <location netOffset="250.00,550.00" convBoundary="0.00,250.00,550.00,800.00" origBoundary="-250.00,-550.00,550.00,250.00" projParameter="!"/>

    <edge id=":0_0" function="internal">
        <lane id=":0_0_0" index="0" speed="13.89" length="9.03" shape="245.20,560.40 244.85,557.95 243.80,556.20 242.05,555.15 239.60,554.80"/>
    </edge>
    <edge id=":0_1" function="internal">
        <lane id=":0_1_0" index="0" speed="13.89" length="20.80" shape="245.20,560.40 245.20,539.60"/>
        <lane id=":0_1_1" index="1" speed="13.89" length="20.80" shape="248.40,560.40 248.40,539.60"/>
    </edge>
    <edge id=":0_3" function="internal">
        <lane id=":0_3_0" index="0" speed="13.89" length="5.01" shape="248.40,560.40 249.11,555.44"/>
    </edge>
    <edge id=":0_16" function="internal">
        <lane id=":0_16_0" index="0" speed="13.89" length="14.34" shape="249.11,555.44 249.15,555.15 251.40,551.40 255.15,549.15 260.40,548.40"/>
    </edge>
    <edge id=":0_4" function="internal">
        <lane id=":0_4_0" index="0" speed="13.89" length="9.03" shape="260.40,554.80 257.95,555.15 256.20,556.20 255.15,557.95 254.80,560.40"/>
    </edge>
    <edge id=":0_5" function="internal">
        <lane id=":0_5_0" index="0" speed="13.89" length="20.80" shape="260.40,554.80 239.60,554.80"/>
        <lane id=":0_5_1" index="1" speed="13.89" length="20.80" shape="260.40,551.60 239.60,551.60"/>
    </edge>
    <edge id=":0_7" function="internal">
        <lane id=":0_7_0" index="0" speed="13.89" length="5.01" shape="260.40,551.60 255.44,550.89"/>
    </edge>
    <edge id=":0_17" function="internal">
        <lane id=":0_17_0" index="0" speed="13.89" length="14.34" shape="255.44,550.89 255.15,550.85 251.40,548.60 249.15,544.85 248.40,539.60"/>
    </edge>
    <edge id=":0_8" function="internal">
        <lane id=":0_8_0" index="0" speed="13.89" length="9.03" shape="254.80,539.60 255.15,542.05 256.20,543.80 257.95,544.85 260.40,545.20"/>
    </edge>
    <edge id=":0_9" function="internal">
        <lane id=":0_9_0" index="0" speed="13.89" length="20.80" shape="254.80,539.60 254.80,560.40"/>
        <lane id=":0_9_1" index="1" speed="13.89" length="20.80" shape="251.60,539.60 251.60,560.40"/>
    </edge>
    <edge id=":0_11" function="internal">
        <lane id=":0_11_0" index="0" speed="13.89" length="5.01" shape="251.60,539.60 250.89,544.56"/>
    </edge>
    <edge id=":0_18" function="internal">
        <lane id=":0_18_0" index="0" speed="13.89" length="14.34" shape="250.89,544.56 250.85,544.85 248.60,548.60 244.85,550.85 239.60,551.60"/>
    </edge>
    <edge id=":0_12" function="internal">
        <lane id=":0_12_0" index="0" speed="13.89" length="9.03" shape="239.60,545.20 242.05,544.85 243.80,543.80 244.85,542.05 245.20,539.60"/>
    </edge>
    <edge id=":0_13" function="internal">
        <lane id=":0_13_0" index="0" speed="13.89" length="20.80" shape="239.60,545.20 260.40,545.20"/>
        <lane id=":0_13_1" index="1" speed="13.89" length="20.80" shape="239.60,548.40 260.40,548.40"/>
    </edge>
    <edge id=":0_15" function="internal">
        <lane id=":0_15_0" index="0" speed="13.89" length="5.01" shape="239.60,548.40 244.56,549.11"/>
    </edge>
    <edge id=":0_19" function="internal">
        <lane id=":0_19_0" index="0" speed="13.89" length="14.34" shape="244.56,549.11 244.85,549.15 248.60,551.40 250.85,555.15 251.60,560.40"/>
    </edge>
    <edge id=":1_0" function="internal">
        <lane id=":1_0_0" index="0" speed="13.89" length="9.03" shape="395.20,560.40 394.85,557.95 393.80,556.20 392.05,555.15 389.60,554.80"/>
    </edge>
    <edge id=":1_1" function="internal">
        <lane id=":1_1_0" index="0" speed="13.89" length="20.80" shape="395.20,560.40 395.20,539.60"/>
        <lane id=":1_1_1" index="1" speed="13.89" length="20.80" shape="398.40,560.40 398.40,539.60"/>
    </edge>
    <edge id=":1_3" function="internal">
        <lane id=":1_3_0" index="0" speed="13.89" length="5.01" shape="398.40,560.40 399.11,555.44"/>
    </edge>
    <edge id=":1_16" function="internal">
        <lane id=":1_16_0" index="0" speed="13.89" length="14.34" shape="399.11,555.44 399.15,555.15 401.40,551.40 405.15,549.15 410.40,548.40"/>
    </edge>
    <edge id=":1_4" function="internal">
        <lane id=":1_4_0" index="0" speed="13.89" length="9.03" shape="410.40,554.80 407.95,555.15 406.20,556.20 405.15,557.95 404.80,560.40"/>
    </edge>
    <edge id=":1_5" function="internal">
        <lane id=":1_5_0" index="0" speed="13.89" length="20.80" shape="410.40,554.80 389.60,554.80"/>
        <lane id=":1_5_1" index="1" speed="13.89" length="20.80" shape="410.40,551.60 389.60,551.60"/>
    </edge>
    <edge id=":1_7" function="internal">
        <lane id=":1_7_0" index="0" speed="13.89" length="5.01" shape="410.40,551.60 405.44,550.89"/>
    </edge>
    <edge id=":1_17" function="internal">
        <lane id=":1_17_0" index="0" speed="13.89" length="14.34" shape="405.44,550.89 405.15,550.85 401.40,548.60 399.15,544.85 398.40,539.60"/>
    </edge>
    <edge id=":1_8" function="internal">
        <lane id=":1_8_0" index="0" speed="13.89" length="9.03" shape="404.80,539.60 405.15,542.05 406.20,543.80 407.95,544.85 410.40,545.20"/>
    </edge>
    <edge id=":1_9" function="internal">
        <lane id=":1_9_0" index="0" speed="13.89" length="20.80" shape="404.80,539.60 404.80,560.40"/>
        <lane id=":1_9_1" index="1" speed="13.89" length="20.80" shape="401.60,539.60 401.60,560.40"/>
    </edge>
    <edge id=":1_11" function="internal">
        <lane id=":1_11_0" index="0" speed="13.89" length="5.01" shape="401.60,539.60 400.89,544.56"/>
    </edge>
    <edge id=":1_18" function="internal">
        <lane id=":1_18_0" index="0" speed="13.89" length="14.34" shape="400.89,544.56 400.85,544.85 398.60,548.60 394.85,550.85 389.60,551.60"/>
    </edge>
    <edge id=":1_12" function="internal">
        <lane id=":1_12_0" index="0" speed="13.89" length="9.03" shape="389.60,545.20 392.05,544.85 393.80,543.80 394.85,542.05 395.20,539.60"/>
    </edge>
    <edge id=":1_13" function="internal">
        <lane id=":1_13_0" index="0" speed="13.89" length="20.80" shape="389.60,545.20 410.40,545.20"/>
        <lane id=":1_13_1" index="1" speed="13.89" length="20.80" shape="389.60,548.40 410.40,548.40"/>
    </edge>
    <edge id=":1_15" function="internal">
        <lane id=":1_15_0" index="0" speed="13.89" length="5.01" shape="389.60,548.40 394.56,549.11"/>
    </edge>
    <edge id=":1_19" function="internal">
        <lane id=":1_19_0" index="0" speed="13.89" length="14.34" shape="394.56,549.11 394.85,549.15 398.60,551.40 400.85,555.15 401.60,560.40"/>
    </edge>
    <edge id=":2_0" function="internal">
        <lane id=":2_0_0" index="0" speed="13.89" length="9.03" shape="245.20,410.40 244.85,407.95 243.80,406.20 242.05,405.15 239.60,404.80"/>
    </edge>
    <edge id=":2_1" function="internal">
        <lane id=":2_1_0" index="0" speed="13.89" length="20.80" shape="245.20,410.40 245.20,389.60"/>
        <lane id=":2_1_1" index="1" speed="13.89" length="20.80" shape="248.40,410.40 248.40,389.60"/>
    </edge>
    <edge id=":2_3" function="internal">
        <lane id=":2_3_0" index="0" speed="13.89" length="5.01" shape="248.40,410.40 249.11,405.44"/>
    </edge>
    <edge id=":2_16" function="internal">
        <lane id=":2_16_0" index="0" speed="13.89" length="14.34" shape="249.11,405.44 249.15,405.15 251.40,401.40 255.15,399.15 260.40,398.40"/>
    </edge>
    <edge id=":2_4" function="internal">
        <lane id=":2_4_0" index="0" speed="13.89" length="9.03" shape="260.40,404.80 257.95,405.15 256.20,406.20 255.15,407.95 254.80,410.40"/>
    </edge>
    <edge id=":2_5" function="internal">
        <lane id=":2_5_0" index="0" speed="13.89" length="20.80" shape="260.40,404.80 239.60,404.80"/>
        <lane id=":2_5_1" index="1" speed="13.89" length="20.80" shape="260.40,401.60 239.60,401.60"/>
    </edge>
    <edge id=":2_7" function="internal">
        <lane id=":2_7_0" index="0" speed="13.89" length="5.01" shape="260.40,401.60 255.44,400.89"/>
    </edge>
    <edge id=":2_17" function="internal">
        <lane id=":2_17_0" index="0" speed="13.89" length="14.34" shape="255.44,400.89 255.15,400.85 251.40,398.60 249.15,394.85 248.40,389.60"/>
    </edge>
    <edge id=":2_8" function="internal">
        <lane id=":2_8_0" index="0" speed="13.89" length="9.03" shape="254.80,389.60 255.15,392.05 256.20,393.80 257.95,394.85 260.40,395.20"/>
    </edge>
    <edge id=":2_9" function="internal">
        <lane id=":2_9_0" index="0" speed="13.89" length="20.80" shape="254.80,389.60 254.80,410.40"/>
        <lane id=":2_9_1" index="1" speed="13.89" length="20.80" shape="251.60,389.60 251.60,410.40"/>
    </edge>
    <edge id=":2_11" function="internal">
        <lane id=":2_11_0" index="0" speed="13.89" length="5.01" shape="251.60,389.60 250.89,394.56"/>
    </edge>
    <edge id=":2_18" function="internal">
        <lane id=":2_18_0" index="0" speed="13.89" length="14.34" shape="250.89,394.56 250.85,394.85 248.60,398.60 244.85,400.85 239.60,401.60"/>
    </edge>
    <edge id=":2_12" function="internal">
        <lane id=":2_12_0" index="0" speed="13.89" length="9.03" shape="239.60,395.20 242.05,394.85 243.80,393.80 244.85,392.05 245.20,389.60"/>
    </edge>
    <edge id=":2_13" function="internal">
        <lane id=":2_13_0" index="0" speed="13.89" length="20.80" shape="239.60,395.20 260.40,395.20"/>
        <lane id=":2_13_1" index="1" speed="13.89" length="20.80" shape="239.60,398.40 260.40,398.40"/>
    </edge>
    <edge id=":2_15" function="internal">
        <lane id=":2_15_0" index="0" speed="13.89" length="5.01" shape="239.60,398.40 244.56,399.11"/>
    </edge>
    <edge id=":2_19" function="internal">
        <lane id=":2_19_0" index="0" speed="13.89" length="14.34" shape="244.56,399.11 244.85,399.15 248.60,401.40 250.85,405.15 251.60,410.40"/>
    </edge>
    <edge id=":3_0" function="internal">
        <lane id=":3_0_0" index="0" speed="13.89" length="9.03" shape="395.20,410.40 394.85,407.95 393.80,406.20 392.05,405.15 389.60,404.80"/>
    </edge>
    <edge id=":3_1" function="internal">
        <lane id=":3_1_0" index="0" speed="13.89" length="20.80" shape="395.20,410.40 395.20,389.60"/>
        <lane id=":3_1_1" index="1" speed="13.89" length="20.80" shape="398.40,410.40 398.40,389.60"/>
    </edge>
    <edge id=":3_3" function="internal">
        <lane id=":3_3_0" index="0" speed="13.89" length="5.01" shape="398.40,410.40 399.11,405.44"/>
    </edge>
    <edge id=":3_16" function="internal">
        <lane id=":3_16_0" index="0" speed="13.89" length="14.34" shape="399.11,405.44 399.15,405.15 401.40,401.40 405.15,399.15 410.40,398.40"/>
    </edge>
    <edge id=":3_4" function="internal">
        <lane id=":3_4_0" index="0" speed="13.89" length="9.03" shape="410.40,404.80 407.95,405.15 406.20,406.20 405.15,407.95 404.80,410.40"/>
    </edge>
    <edge id=":3_5" function="internal">
        <lane id=":3_5_0" index="0" speed="13.89" length="20.80" shape="410.40,404.80 389.60,404.80"/>
        <lane id=":3_5_1" index="1" speed="13.89" length="20.80" shape="410.40,401.60 389.60,401.60"/>
    </edge>
    <edge id=":3_7" function="internal">
        <lane id=":3_7_0" index="0" speed="13.89" length="5.01" shape="410.40,401.60 405.44,400.89"/>
    </edge>
    <edge id=":3_17" function="internal">
        <lane id=":3_17_0" index="0" speed="13.89" length="14.34" shape="405.44,400.89 405.15,400.85 401.40,398.60 399.15,394.85 398.40,389.60"/>
    </edge>
    <edge id=":3_8" function="internal">
        <lane id=":3_8_0" index="0" speed="13.89" length="9.03" shape="404.80,389.60 405.15,392.05 406.20,393.80 407.95,394.85 410.40,395.20"/>
    </edge>
    <edge id=":3_9" function="internal">
        <lane id=":3_9_0" index="0" speed="13.89" length="20.80" shape="404.80,389.60 404.80,410.40"/>
        <lane id=":3_9_1" index="1" speed="13.89" length="20.80" shape="401.60,389.60 401.60,410.40"/>
    </edge>
    <edge id=":3_11" function="internal">
        <lane id=":3_11_0" index="0" speed="13.89" length="5.01" shape="401.60,389.60 400.89,394.56"/>
    </edge>
    <edge id=":3_18" function="internal">
        <lane id=":3_18_0" index="0" speed="13.89" length="14.34" shape="400.89,394.56 400.85,394.85 398.60,398.60 394.85,400.85 389.60,401.60"/>
    </edge>
    <edge id=":3_12" function="internal">
        <lane id=":3_12_0" index="0" speed="13.89" length="9.03" shape="389.60,395.20 392.05,394.85 393.80,393.80 394.85,392.05 395.20,389.60"/>
    </edge>
    <edge id=":3_13" function="internal">
        <lane id=":3_13_0" index="0" speed="13.89" length="20.80" shape="389.60,395.20 410.40,395.20"/>
        <lane id=":3_13_1" index="1" speed="13.89" length="20.80" shape="389.60,398.40 410.40,398.40"/>
    </edge>
    <edge id=":3_15" function="internal">
        <lane id=":3_15_0" index="0" speed="13.89" length="5.01" shape="389.60,398.40 394.56,399.11"/>
    </edge>
    <edge id=":3_19" function="internal">
        <lane id=":3_19_0" index="0" speed="13.89" length="14.34" shape="394.56,399.11 394.85,399.15 398.60,401.40 400.85,405.15 401.60,410.40"/>
    </edge>

    <edge id="0Ei" from="1" to="0" priority="3" length="250.00">
        <lane id="0Ei_0" index="0" speed="13.89" length="250.00" shape="389.60,554.80 260.40,554.80"/>
        <lane id="0Ei_1" index="1" speed="13.89" length="250.00" shape="389.60,551.60 260.40,551.60"/>
    </edge>
    <edge id="0Ni" from="15" to="0" priority="3">
        <lane id="0Ni_0" index="0" speed="13.89" length="239.60" shape="245.20,800.00 245.20,560.40"/>
        <lane id="0Ni_1" index="1" speed="13.89" length="239.60" shape="248.40,800.00 248.40,560.40"/>
    </edge>
    <edge id="0No" from="0" to="15" priority="3">
        <lane id="0No_0" index="0" speed="13.89" length="239.60" shape="254.80,560.40 254.80,800.00"/>
        <lane id="0No_1" index="1" speed="13.89" length="239.60" shape="251.60,560.40 251.60,800.00"/>
    </edge>
    <edge id="0Si" from="2" to="0" priority="3" length="250.00">
        <lane id="0Si_0" index="0" speed="13.89" length="250.00" shape="254.80,410.40 254.80,539.60"/>
        <lane id="0Si_1" index="1" speed="13.89" length="250.00" shape="251.60,410.40 251.60,539.60"/>
    </edge>
    <edge id="0Wi" from="14" to="0" priority="3">
        <lane id="0Wi_0" index="0" speed="13.89" length="239.60" shape="0.00,545.20 239.60,545.20"/>
        <lane id="0Wi_1" index="1" speed="13.89" length="239.60" shape="0.00,548.40 239.60,548.40"/>
    </edge>
    <edge id="0Wo" from="0" to="14" priority="3">
        <lane id="0Wo_0" index="0" speed="13.89" length="239.60" shape="239.60,554.80 0.00,554.80"/>
        <lane id="0Wo_1" index="1" speed="13.89" length="239.60" shape="239.60,551.60 0.00,551.60"/>
    </edge>
    <edge id="1Ei" from="17" to="1" priority="3">
        <lane id="1Ei_0" index="0" speed="13.89" length="139.60" shape="550.00,554.80 410.40,554.80"/>
        <lane id="1Ei_1" index="1" speed="13.89" length="139.60" shape="550.00,551.60 410.40,551.60"/>
    </edge>
    <edge id="1Eo" from="1" to="17" priority="3">
        <lane id="1Eo_0" index="0" speed="13.89" length="139.60" shape="410.40,545.20 550.00,545.20"/>
        <lane id="1Eo_1" index="1" speed="13.89" length="139.60" shape="410.40,548.40 550.00,548.40"/>
    </edge>
    <edge id="1Ni" from="16" to="1" priority="3">
        <lane id="1Ni_0" index="0" speed="13.89" length="239.60" shape="395.20,800.00 395.20,560.40"/>
        <lane id="1Ni_1" index="1" speed="13.89" length="239.60" shape="398.40,800.00 398.40,560.40"/>
    </edge>
    <edge id="1No" from="1" to="16" priority="3">
        <lane id="1No_0" index="0" speed="13.89" length="239.60" shape="404.80,560.40 404.80,800.00"/>
        <lane id="1No_1" index="1" speed="13.89" length="239.60" shape="401.60,560.40 401.60,800.00"/>
    </edge>
    <edge id="1Si" from="3" to="1" priority="3" length="250.00">
        <lane id="1Si_0" index="0" speed="13.89" length="250.00" shape="404.80,410.40 404.80,539.60"/>
        <lane id="1Si_1" index="1" speed="13.89" length="250.00" shape="401.60,410.40 401.60,539.60"/>
    </edge>
    <edge id="1Wi" from="0" to="1" priority="3" length="250.00">
        <lane id="1Wi_0" index="0" speed="13.89" length="250.00" shape="260.40,545.20 389.60,545.20"/>
        <lane id="1Wi_1" index="1" speed="13.89" length="250.00" shape="260.40,548.40 389.60,548.40"/>
    </edge>
    <edge id="2Ei" from="3" to="2" priority="3" length="250.00">
        <lane id="2Ei_0" index="0" speed="13.89" length="250.00" shape="389.60,404.80 260.40,404.80"/>
        <lane id="2Ei_1" index="1" speed="13.89" length="250.00" shape="389.60,401.60 260.40,401.60"/>
    </edge>
    <edge id="2Ni" from="0" to="2" priority="3" length="250.00">
        <lane id="2Ni_0" index="0" speed="13.89" length="250.00" shape="245.20,539.60 245.20,410.40"/>
        <lane id="2Ni_1" index="1" speed="13.89" length="250.00" shape="248.40,539.60 248.40,410.40"/>
    </edge>
    <edge id="2Si" from="20" to="2" priority="3">
        <lane id="2Si_0" index="0" speed="13.89" length="139.60" shape="254.80,250.00 254.80,389.60"/>
        <lane id="2Si_1" index="1" speed="13.89" length="139.60" shape="251.60,250.00 251.60,389.60"/>
    </edge>
    <edge id="2So" from="2" to="20" priority="3">
        <lane id="2So_0" index="0" speed="13.89" length="139.60" shape="245.20,389.60 245.20,250.00"/>
        <lane id="2So_1" index="1" speed="13.89" length="139.60" shape="248.40,389.60 248.40,250.00"/>
    </edge>
    <edge id="2Wi" from="13" to="2" priority="3">
        <lane id="2Wi_0" index="0" speed="13.89" length="239.60" shape="0.00,395.20 239.60,395.20"/>
        <lane id="2Wi_1" index="1" speed="13.89" length="239.60" shape="0.00,398.40 239.60,398.40"/>
    </edge>
    <edge id="2Wo" from="2" to="13" priority="3">
        <lane id="2Wo_0" index="0" speed="13.89" length="239.60" shape="239.60,404.80 0.00,404.80"/>
        <lane id="2Wo_1" index="1" speed="13.89" length="239.60" shape="239.60,401.60 0.00,401.60"/>
    </edge>
    <edge id="3Ei" from="18" to="3" priority="3">
        <lane id="3Ei_0" index="0" speed="13.89" length="139.60" shape="550.00,404.80 410.40,404.80"/>
        <lane id="3Ei_1" index="1" speed="13.89" length="139.60" shape="550.00,401.60 410.40,401.60"/>
    </edge>
    <edge id="3Eo" from="3" to="18" priority="3">
        <lane id="3Eo_0" index="0" speed="13.89" length="139.60" shape="410.40,395.20 550.00,395.20"/>
        <lane id="3Eo_1" index="1" speed="13.89" length="139.60" shape="410.40,398.40 550.00,398.40"/>
    </edge>
    <edge id="3Ni" from="1" to="3" priority="3" length="250.00">
        <lane id="3Ni_0" index="0" speed="13.89" length="250.00" shape="395.20,539.60 395.20,410.40"/>
        <lane id="3Ni_1" index="1" speed="13.89" length="250.00" shape="398.40,539.60 398.40,410.40"/>
    </edge>
    <edge id="3Si" from="19" to="3" priority="3" length="139.60">
        <lane id="3Si_0" index="0" speed="13.89" length="139.60" shape="404.80,250.00 404.80,389.60"/>
        <lane id="3Si_1" index="1" speed="13.89" length="139.60" shape="401.60,250.00 401.60,389.60"/>
    </edge>
    <edge id="3So" from="3" to="19" priority="3">
        <lane id="3So_0" index="0" speed="13.89" length="139.60" shape="395.20,389.60 395.20,250.00"/>
        <lane id="3So_1" index="1" speed="13.89" length="139.60" shape="398.40,389.60 398.40,250.00"/>
    </edge>
    <edge id="3Wi" from="2" to="3" priority="3" length="250.00">
        <lane id="3Wi_0" index="0" speed="13.89" length="250.00" shape="260.40,395.20 389.60,395.20"/>
        <lane id="3Wi_1" index="1" speed="13.89" length="250.00" shape="260.40,398.40 389.60,398.40"/>
    </edge>

    <tlLogic id="0" type="static" programID="0" offset="0">
        <phase duration="100" state="GGGgrrrrGGGgrrrr"/>
        <phase duration="2"  state="YYYYrrrrYYYYrrrr"/>
        <phase duration="1"  state="rrrrrrrrrrrrrrrr"/>
        <phase duration="100" state="rrrrGGGgrrrrGGGg"/>
        <phase duration="2"  state="rrrrYYYYrrrrYYYY"/>
        <phase duration="1"  state="rrrrrrrrrrrrrrrr"/>
    </tlLogic>
    <tlLogic id="1" type="static" programID="0" offset="0">
        <phase duration="100" state="GGGgrrrrGGGgrrrr"/>
        <phase duration="2"  state="YYYYrrrrYYYYrrrr"/>
        <phase duration="1"  state="rrrrrrrrrrrrrrrr"/>
        <phase duration="100" state="rrrrGGGgrrrrGGGg"/>
        <phase duration="2"  state="rrrrYYYYrrrrYYYY"/>
        <phase duration="1"  state="rrrrrrrrrrrrrrrr"/>
    </tlLogic>
    <tlLogic id="2" type="static" programID="0" offset="0">
        <phase duration="100" state="GGGgrrrrGGGgrrrr"/>
        <phase duration="2"  state="YYYYrrrrYYYYrrrr"/>
        <phase duration="1"  state="rrrrrrrrrrrrrrrr"/>
        <phase duration="100" state="rrrrGGGgrrrrGGGg"/>
        <phase duration="2"  state="rrrrYYYYrrrrYYYY"/>
        <phase duration="1"  state="rrrrrrrrrrrrrrrr"/>
    </tlLogic>
    <tlLogic id="3" type="static" programID="0" offset="0">
        <phase duration="100" state="GGGgrrrrGGGgrrrr"/>
        <phase duration="2"  state="YYYYrrrrYYYYrrrr"/>
        <phase duration="1"  state="rrrrrrrrrrrrrrrr"/>
        <phase duration="100" state="rrrrGGGgrrrrGGGg"/>
        <phase duration="2"  state="rrrrYYYYrrrrYYYY"/>
        <phase duration="1"  state="rrrrrrrrrrrrrrrr"/>
    </tlLogic>

    <junction id="0" type="traffic_light" x="250.00" y="550.00" incLanes="0Ni_0 0Ni_1 0Ei_0 0Ei_1 0Si_0 0Si_1 0Wi_0 0Wi_1" intLanes=":0_0_0 :0_1_0 :0_1_1 :0_16_0 :0_4_0 :0_5_0 :0_5_1 :0_17_0 :0_8_0 :0_9_0 :0_9_1 :0_18_0 :0_12_0 :0_13_0 :0_13_1 :0_19_0" shape="243.60,560.40 256.40,560.40 260.40,556.40 260.40,543.60 256.40,539.60 243.60,539.60 239.60,543.60 239.60,556.40">
        <request index="0"  response="0000000000000000" foes="0000000001100000" cont="0"/>
        <request index="1"  response="1000000010000000" foes="1111100011100000" cont="0"/>
        <request index="2"  response="1000000010000000" foes="1111100011100000" cont="0"/>
        <request index="3"  response="1000011010000000" foes="1110011011100000" cont="1"/>
        <request index="4"  response="0000011000000000" foes="0000011000000000" cont="0"/>
        <request index="5"  response="0000111000001111" foes="1000111000001111" cont="0"/>
        <request index="6"  response="0000111000001111" foes="1000111000001111" cont="0"/>
        <request index="7"  response="0110111000001110" foes="0110111000001110" cont="1"/>
        <request index="8"  response="0000000000000000" foes="0110000000000000" cont="0"/>
        <request index="9"  response="1000000010000000" foes="1110000011111000" cont="0"/>
        <request index="10" response="1000000010000000" foes="1110000011111000" cont="0"/>
        <request index="11" response="1000000010000110" foes="1110000011100110" cont="1"/>
        <request index="12" response="0000000000000110" foes="0000000000000110" cont="0"/>
        <request index="13" response="0000111100001110" foes="0000111110001110" cont="0"/>
        <request index="14" response="0000111100001110" foes="0000111110001110" cont="0"/>
        <request index="15" response="0000111001101110" foes="0000111001101110" cont="1"/>
    </junction>
    <junction id="1" type="traffic_light" x="400.00" y="550.00" incLanes="1Ni_0 1Ni_1 1Ei_0 1Ei_1 1Si_0 1Si_1 1Wi_0 1Wi_1" intLanes=":1_0_0 :1_1_0 :1_1_1 :1_16_0 :1_4_0 :1_5_0 :1_5_1 :1_17_0 :1_8_0 :1_9_0 :1_9_1 :1_18_0 :1_12_0 :1_13_0 :1_13_1 :1_19_0" shape="393.60,560.40 406.40,560.40 410.40,556.40 410.40,543.60 406.40,539.60 393.60,539.60 389.60,543.60 389.60,556.40">
        <request index="0"  response="0000000000000000" foes="0000000001100000" cont="0"/>
        <request index="1"  response="1000000010000000" foes="1111100011100000" cont="0"/>
        <request index="2"  response="1000000010000000" foes="1111100011100000" cont="0"/>
        <request index="3"  response="1000011010000000" foes="1110011011100000" cont="1"/>
        <request index="4"  response="0000011000000000" foes="0000011000000000" cont="0"/>
        <request index="5"  response="0000111000001111" foes="1000111000001111" cont="0"/>
        <request index="6"  response="0000111000001111" foes="1000111000001111" cont="0"/>
        <request index="7"  response="0110111000001110" foes="0110111000001110" cont="1"/>
        <request index="8"  response="0000000000000000" foes="0110000000000000" cont="0"/>
        <request index="9"  response="1000000010000000" foes="1110000011111000" cont="0"/>
        <request index="10" response="1000000010000000" foes="1110000011111000" cont="0"/>
        <request index="11" response="1000000010000110" foes="1110000011100110" cont="1"/>
        <request index="12" response="0000000000000110" foes="0000000000000110" cont="0"/>
        <request index="13" response="0000111100001110" foes="0000111110001110" cont="0"/>
        <request index="14" response="0000111100001110" foes="0000111110001110" cont="0"/>
        <request index="15" response="0000111001101110" foes="0000111001101110" cont="1"/>
    </junction>
    <junction id="13" type="unregulated" x="0.00" y="400.00" incLanes="2Wo_0 2Wo_1" intLanes="" shape="0.00,400.00 0.00,406.40 0.00,400.00"/>
    <junction id="14" type="unregulated" x="0.00" y="550.00" incLanes="0Wo_0 0Wo_1" intLanes="" shape="0.00,550.00 0.00,556.40 0.00,550.00"/>
    <junction id="15" type="unregulated" x="250.00" y="800.00" incLanes="0No_0 0No_1" intLanes="" shape="250.00,800.00 256.40,800.00 250.00,800.00"/>
    <junction id="16" type="unregulated" x="400.00" y="800.00" incLanes="1No_0 1No_1" intLanes="" shape="400.00,800.00 406.40,800.00 400.00,800.00"/>
    <junction id="17" type="dead_end" x="550.00" y="550.00" incLanes="1Eo_0 1Eo_1" intLanes="" shape="550.00,550.00 550.00,543.60 550.00,550.00"/>
    <junction id="18" type="dead_end" x="550.00" y="400.00" incLanes="3Eo_0 3Eo_1" intLanes="" shape="550.00,400.00 550.00,393.60 550.00,400.00"/>
    <junction id="19" type="dead_end" x="400.00" y="250.00" incLanes="3So_0 3So_1" intLanes="" shape="400.00,250.00 393.60,250.00 400.00,250.00"/>
    <junction id="2" type="traffic_light" x="250.00" y="400.00" incLanes="2Ni_0 2Ni_1 2Ei_0 2Ei_1 2Si_0 2Si_1 2Wi_0 2Wi_1" intLanes=":2_0_0 :2_1_0 :2_1_1 :2_16_0 :2_4_0 :2_5_0 :2_5_1 :2_17_0 :2_8_0 :2_9_0 :2_9_1 :2_18_0 :2_12_0 :2_13_0 :2_13_1 :2_19_0" shape="243.60,410.40 256.40,410.40 260.40,406.40 260.40,393.60 256.40,389.60 243.60,389.60 239.60,393.60 239.60,406.40">
        <request index="0"  response="0000000000000000" foes="0000000001100000" cont="0"/>
        <request index="1"  response="1000000010000000" foes="1111100011100000" cont="0"/>
        <request index="2"  response="1000000010000000" foes="1111100011100000" cont="0"/>
        <request index="3"  response="1000011010000000" foes="1110011011100000" cont="1"/>
        <request index="4"  response="0000011000000000" foes="0000011000000000" cont="0"/>
        <request index="5"  response="0000111000001111" foes="1000111000001111" cont="0"/>
        <request index="6"  response="0000111000001111" foes="1000111000001111" cont="0"/>
        <request index="7"  response="0110111000001110" foes="0110111000001110" cont="1"/>
        <request index="8"  response="0000000000000000" foes="0110000000000000" cont="0"/>
        <request index="9"  response="1000000010000000" foes="1110000011111000" cont="0"/>
        <request index="10" response="1000000010000000" foes="1110000011111000" cont="0"/>
        <request index="11" response="1000000010000110" foes="1110000011100110" cont="1"/>
        <request index="12" response="0000000000000110" foes="0000000000000110" cont="0"/>
        <request index="13" response="0000111100001110" foes="0000111110001110" cont="0"/>
        <request index="14" response="0000111100001110" foes="0000111110001110" cont="0"/>
        <request index="15" response="0000111001101110" foes="0000111001101110" cont="1"/>
    </junction>
    <junction id="20" type="dead_end" x="250.00" y="250.00" incLanes="2So_0 2So_1" intLanes="" shape="250.00,250.00 243.60,250.00 250.00,250.00"/>